Version 4
SHEET 1 1140 888
WIRE 304 -320 -16 -320
WIRE -16 -272 -16 -320
WIRE 224 -256 192 -256
WIRE 224 -240 224 -256
WIRE 192 -192 192 -256
WIRE -16 -176 -16 -208
WIRE -16 -176 -48 -176
WIRE 16 -176 -16 -176
WIRE 128 -176 96 -176
WIRE 160 -176 128 -176
WIRE 304 -160 304 -320
WIRE 304 -160 224 -160
WIRE 400 -160 304 -160
WIRE 160 -144 144 -144
WIRE 400 -144 400 -160
WIRE -224 -80 -368 -80
WIRE 192 -80 192 -128
WIRE 272 -80 192 -80
WIRE 144 -64 144 -144
WIRE 304 -64 304 -160
WIRE 304 -64 144 -64
WIRE 128 -48 128 -176
WIRE -320 0 -320 -32
WIRE -368 16 -368 -80
WIRE -352 16 -368 16
WIRE -224 32 -224 -80
WIRE -224 32 -288 32
WIRE -128 32 -128 -176
WIRE -128 32 -224 32
WIRE 400 32 400 -64
WIRE 576 32 400 32
WIRE -656 48 -720 48
WIRE -512 48 -592 48
WIRE -400 48 -432 48
WIRE -352 48 -400 48
WIRE 128 48 128 16
WIRE -320 96 -320 64
WIRE 304 96 0 96
WIRE -400 112 -400 48
WIRE -720 128 -720 48
WIRE 224 128 192 128
WIRE 400 128 400 32
WIRE 224 144 224 128
WIRE 192 192 192 128
WIRE -128 208 -128 32
WIRE -96 208 -128 208
WIRE 0 208 0 176
WIRE 0 208 -32 208
WIRE 32 208 0 208
WIRE 128 208 96 208
WIRE 160 208 128 208
WIRE 304 224 304 96
WIRE 304 224 224 224
WIRE 400 224 400 208
WIRE 400 224 304 224
WIRE 160 240 144 240
WIRE -720 256 -720 208
WIRE -400 256 -400 192
WIRE -352 256 -400 256
WIRE 192 288 192 256
WIRE 272 288 192 288
WIRE 144 320 144 240
WIRE 304 320 304 224
WIRE 304 320 144 320
WIRE 128 336 128 208
WIRE 128 448 128 416
WIRE -416 560 -576 560
WIRE -304 560 -416 560
WIRE -176 560 -304 560
WIRE -304 592 -304 560
WIRE -576 640 -576 560
WIRE -416 672 -416 560
WIRE -304 704 -304 672
WIRE -128 704 -304 704
WIRE -16 704 -128 704
WIRE -304 736 -304 704
WIRE -128 736 -128 704
WIRE -576 816 -576 720
WIRE -416 816 -416 736
WIRE -416 816 -576 816
WIRE -304 816 -416 816
WIRE -128 816 -128 800
WIRE -128 816 -304 816
WIRE -576 848 -576 816
FLAG 128 48 0
FLAG 128 448 0
FLAG 224 -240 0
FLAG 224 144 0
FLAG 272 288 Vcc
FLAG 272 -80 Vcc
FLAG 576 32 Vout
FLAG -352 256 Vcc2
FLAG -720 48 Vin
FLAG -320 -32 Vcc
FLAG -320 96 0
FLAG -576 848 0
FLAG -176 560 Vcc
FLAG -16 704 Vcc2
FLAG -720 256 0
SYMBOL Opamps\\LT1115 192 288 M180
SYMATTR InstName U1
SYMBOL Opamps\\LT1115 192 -96 M180
SYMATTR InstName U2
SYMBOL res -32 -192 R90
WINDOW 0 0 56 VBottom 2
WINDOW 3 32 56 VTop 2
SYMATTR InstName R1
SYMATTR Value 10k
SYMBOL res 112 -192 R90
WINDOW 0 0 56 VBottom 2
WINDOW 3 32 56 VTop 2
SYMATTR InstName R2
SYMATTR Value 10k
SYMBOL res -16 80 R0
SYMATTR InstName R3
SYMATTR Value 10k
SYMBOL res 112 320 R0
SYMATTR InstName R4
SYMATTR Value 10k
SYMBOL cap -32 -272 R0
SYMATTR InstName C1
SYMATTR Value 10n
SYMBOL cap 112 -48 R0
SYMATTR InstName C2
SYMATTR Value 10n
SYMBOL cap -32 192 R90
WINDOW 0 0 32 VBottom 2
WINDOW 3 32 32 VTop 2
SYMATTR InstName C3
SYMATTR Value 10n
SYMBOL cap 96 192 R90
WINDOW 0 0 32 VBottom 2
WINDOW 3 32 32 VTop 2
SYMATTR InstName C4
SYMATTR Value 10n
SYMBOL res 384 -160 R0
SYMATTR InstName R5
SYMATTR Value 10k
SYMBOL res 384 112 R0
SYMATTR InstName R6
SYMATTR Value 10k
SYMBOL Opamps\\LT1115 -320 -32 R0
SYMATTR InstName U3
SYMBOL res -416 32 R90
WINDOW 0 0 56 VBottom 2
WINDOW 3 32 56 VTop 2
SYMATTR InstName R7
SYMATTR Value 10k
SYMBOL res -416 96 R0
SYMATTR InstName R8
SYMATTR Value 1m
SYMBOL cap -592 32 R90
WINDOW 0 0 32 VBottom 2
WINDOW 3 32 32 VTop 2
SYMATTR InstName C5
SYMATTR Value 22n
SYMBOL voltage -576 624 R0
SYMATTR InstName V1
SYMATTR Value DC 9V
SYMBOL res -320 576 R0
SYMATTR InstName R9
SYMATTR Value 10k
SYMBOL res -320 720 R0
SYMATTR InstName R10
SYMATTR Value 10k
SYMBOL polcap -144 736 R0
SYMATTR InstName C6
SYMATTR Value 220µ
SYMBOL polcap -432 672 R0
SYMATTR InstName C7
SYMATTR Value 220µ
SYMBOL voltage -720 112 R0
SYMATTR InstName V2
SYMATTR Value wavefile="D:/Perso/Effects/Eon/Sound/test.wav" chan=0
TEXT 232 520 Left 2 !.wave "D:/Perso/Effects/Eon/Sound/co_out.wav" 16 22050 Vout
TEXT -756 872 Left 2 !.tran 2.45
