Version 4
SHEET 1 2340 2280
WIRE 560 -592 384 -592
WIRE 944 -592 624 -592
WIRE 192 -560 -64 -560
WIRE 1152 -544 1136 -544
WIRE 1280 -544 1232 -544
WIRE -64 -448 -64 -560
WIRE -16 -448 -64 -448
WIRE 192 -432 192 -560
WIRE 192 -432 48 -432
WIRE 272 -432 192 -432
WIRE 384 -432 384 -592
WIRE 384 -432 352 -432
WIRE 400 -432 384 -432
WIRE 496 -432 480 -432
WIRE 704 -432 496 -432
WIRE 848 -432 848 -496
WIRE -16 -416 -144 -416
WIRE 704 -416 704 -432
WIRE 816 -416 704 -416
WIRE 944 -400 944 -592
WIRE 944 -400 880 -400
WIRE 1024 -400 944 -400
WIRE 1040 -400 1024 -400
WIRE 1136 -400 1136 -544
WIRE 1136 -400 1120 -400
WIRE 1168 -400 1136 -400
WIRE 816 -384 704 -384
WIRE 1280 -384 1280 -544
WIRE 1280 -384 1232 -384
WIRE 1568 -384 1280 -384
WIRE 1696 -384 1632 -384
WIRE 1168 -368 1136 -368
WIRE 496 -336 496 -432
WIRE 704 -336 704 -384
WIRE 704 -336 608 -336
WIRE 1024 -336 1024 -400
WIRE 1056 -336 1024 -336
WIRE 1136 -336 1136 -368
WIRE 1136 -336 1120 -336
WIRE 1136 -320 1136 -336
WIRE 848 -272 848 -368
WIRE 608 -256 608 -336
WIRE 624 -256 608 -256
WIRE 944 -256 944 -400
WIRE 944 -256 704 -256
WIRE 608 -240 608 -256
WIRE 496 -160 496 -272
WIRE 560 -160 496 -160
WIRE 608 -160 560 -160
WIRE 560 -144 560 -160
WIRE 304 -48 160 -48
WIRE 480 -48 304 -48
WIRE 624 -48 560 -48
WIRE 848 -48 624 -48
WIRE 1696 -48 1696 -384
WIRE 512 16 512 0
WIRE 624 16 624 -48
WIRE 624 16 512 16
WIRE 160 48 160 -48
WIRE 160 48 96 48
WIRE 208 48 160 48
WIRE 96 80 96 48
WIRE 208 80 208 48
WIRE 1744 96 1744 0
WIRE 2096 96 1744 96
WIRE 304 112 304 -48
WIRE 480 112 304 112
WIRE 848 112 848 -48
WIRE 848 112 544 112
WIRE 1696 176 1696 32
WIRE 2016 176 1696 176
WIRE 96 192 96 160
WIRE 208 192 208 160
WIRE 96 304 96 256
WIRE 208 304 208 256
WIRE 784 320 784 272
WIRE 304 400 304 112
WIRE 400 400 304 400
WIRE 720 400 720 272
WIRE 720 400 480 400
WIRE 784 400 784 384
WIRE 784 400 720 400
WIRE 1760 400 1760 336
WIRE 400 416 400 400
WIRE 448 416 400 416
WIRE 624 432 512 432
WIRE 448 448 400 448
WIRE -272 464 -416 464
WIRE -240 464 -272 464
WIRE -144 464 -144 -416
WIRE -144 464 -176 464
WIRE 144 464 -144 464
WIRE 272 464 224 464
WIRE 400 464 400 448
WIRE 400 464 272 464
WIRE 464 464 448 464
WIRE 512 464 496 464
WIRE 624 464 624 432
WIRE 848 464 848 112
WIRE 848 464 624 464
WIRE 880 464 848 464
WIRE 1008 464 960 464
WIRE 1136 464 1072 464
WIRE 1184 464 1136 464
WIRE 1216 464 1184 464
WIRE 1312 464 1296 464
WIRE 1328 464 1312 464
WIRE 1472 464 1408 464
WIRE 1552 464 1472 464
WIRE 1664 464 1616 464
WIRE 1712 464 1664 464
WIRE 480 480 480 464
WIRE -416 496 -416 464
WIRE -272 496 -272 464
WIRE -144 496 -144 464
WIRE 1472 496 1472 464
WIRE 1664 496 1664 464
WIRE 1888 496 1760 496
WIRE 1920 496 1888 496
WIRE 2016 496 2016 176
WIRE 2016 496 1984 496
WIRE 272 512 272 464
WIRE 1136 512 1136 464
WIRE 1184 512 1184 464
WIRE 1248 528 1248 512
WIRE 1312 528 1312 464
WIRE 1312 528 1248 528
WIRE 1888 528 1888 496
WIRE 2016 528 2016 496
WIRE 2096 528 2096 96
WIRE 448 560 448 464
WIRE 512 560 512 464
WIRE 2224 576 2144 576
WIRE 2240 576 2224 576
WIRE -416 608 -416 576
WIRE -272 608 -272 576
WIRE -144 608 -144 576
WIRE 272 608 272 576
WIRE 1136 624 1136 576
WIRE 1152 624 1136 624
WIRE 1184 624 1184 576
WIRE 1184 624 1152 624
WIRE 1152 640 1152 624
WIRE 1472 640 1472 560
WIRE 1664 640 1664 576
WIRE 1888 672 1888 608
WIRE 2016 672 2016 608
WIRE 2096 672 2096 608
WIRE -336 880 -416 880
WIRE -208 880 -256 880
WIRE -144 880 -208 880
WIRE -32 880 -144 880
WIRE 144 880 -32 880
WIRE -32 896 -32 880
WIRE -416 928 -416 880
WIRE -208 960 -208 880
WIRE -144 960 -144 880
WIRE -32 992 -32 976
WIRE 48 992 -32 992
WIRE 144 992 48 992
WIRE -32 1024 -32 992
WIRE 48 1024 48 992
WIRE -416 1120 -416 1008
WIRE -208 1120 -208 1024
WIRE -208 1120 -416 1120
WIRE -144 1120 -144 1024
WIRE -144 1120 -208 1120
WIRE -32 1120 -32 1104
WIRE -32 1120 -144 1120
WIRE 48 1120 48 1088
WIRE 48 1120 -32 1120
WIRE -416 1136 -416 1120
FLAG -416 1136 0
FLAG 144 880 Vcc
FLAG 144 992 Vcc2
FLAG -416 608 0
FLAG -272 608 0
FLAG 272 608 0
FLAG -144 608 Vcc2
FLAG 480 480 0
FLAG 208 304 0
FLAG 96 304 0
FLAG 784 272 0
FLAG 720 272 Vcc
FLAG 1152 640 0
FLAG 1472 640 0
FLAG 1664 640 0
FLAG 1888 672 0
FLAG 2016 672 0
FLAG 2096 672 0
FLAG 1760 336 Vcc
FLAG 2224 576 Vout
FLAG -416 464 Vin
FLAG 560 -144 Vcc2
FLAG 848 -272 Vcc
FLAG 848 -496 0
FLAG 16 -400 0
FLAG 16 -464 Vcc
FLAG 1200 -352 0
FLAG 1200 -416 Vcc
FLAG 1136 -240 Vcc2
FLAG 1696 -384 VlpOu
FLAG 2016 176 VdrOut
SYMBOL voltage -416 912 R0
WINDOW 123 0 0 Left 2
WINDOW 39 0 0 Left 2
SYMATTR InstName V1
SYMATTR Value 9V
SYMBOL res -240 864 R90
WINDOW 0 0 56 VBottom 2
WINDOW 3 32 56 VTop 2
SYMATTR InstName R1
SYMATTR Value 100
SYMBOL res -16 992 R180
WINDOW 0 36 76 Left 2
WINDOW 3 36 40 Left 2
SYMATTR InstName R2
SYMATTR Value 100k
SYMBOL res -16 1120 R180
WINDOW 0 36 76 Left 2
WINDOW 3 36 40 Left 2
SYMATTR InstName R3
SYMATTR Value 100k
SYMBOL polcap -160 960 R0
SYMATTR InstName C1
SYMATTR Value 100µ
SYMBOL polcap 32 1024 R0
SYMATTR InstName C2
SYMATTR Value 47µ
SYMBOL schottky -192 1024 R180
WINDOW 0 24 64 Left 2
WINDOW 3 24 0 Left 2
SYMATTR InstName D1
SYMATTR Value 1N4001
SYMATTR Description Diode
SYMATTR Type diode
SYMBOL voltage -416 480 R0
WINDOW 123 24 124 Left 2
WINDOW 39 0 0 Left 2
WINDOW 3 3 117 Left 2
SYMATTR Value2 AC 1
SYMATTR Value wavefile="/Volumes/DATA/Projects/Elec/Eon/Sound/test.wav" chan=0
SYMATTR InstName V2
SYMBOL res -288 480 R0
SYMATTR InstName R4
SYMATTR Value 2.2Meg
SYMBOL res -160 480 R0
SYMATTR InstName R5
SYMATTR Value 2.2Meg
SYMBOL res 240 448 R90
WINDOW 0 0 56 VBottom 2
WINDOW 3 32 56 VTop 2
SYMATTR InstName R6
SYMATTR Value 1k
SYMBOL cap -176 448 R90
WINDOW 0 0 32 VBottom 2
WINDOW 3 32 32 VTop 2
SYMATTR InstName C3
SYMATTR Value 22n
SYMBOL cap 288 576 R180
WINDOW 0 24 56 Left 2
WINDOW 3 24 8 Left 2
SYMATTR InstName C4
SYMATTR Value 1n
SYMBOL cap 544 96 R90
WINDOW 0 0 32 VBottom 2
WINDOW 3 32 32 VTop 2
SYMATTR InstName C5
SYMATTR Value 100p
SYMBOL polcap 80 192 R0
SYMATTR InstName C6
SYMATTR Value 4.7µ
SYMBOL polcap 192 192 R0
SYMATTR InstName C7
SYMATTR Value 2.2µ
SYMBOL res 80 64 R0
SYMATTR InstName R7
SYMATTR Value 560
SYMBOL res 192 64 R0
SYMATTR InstName R8
SYMATTR Value 47
SYMBOL res 976 448 R90
WINDOW 0 0 56 VBottom 2
WINDOW 3 32 56 VTop 2
SYMATTR InstName R9
SYMATTR Value 1k
SYMBOL pot 576 -64 R90
WINDOW 0 -25 12 VRight 2
WINDOW 3 46 107 Invisible 2
WINDOW 38 38 -22 Invisible 2
SYMATTR InstName VR1_DRIVE
SYMATTR Value Rpot=100K wiper=.3
SYMATTR SpiceModel pot_log
SYMBOL cap 800 384 R180
WINDOW 0 24 56 Left 2
WINDOW 3 24 8 Left 2
SYMATTR InstName C9
SYMATTR Value 10n
SYMBOL cap 512 544 R90
WINDOW 0 0 32 VBottom 2
WINDOW 3 32 32 VTop 2
SYMATTR InstName C10
SYMATTR Value 33p
SYMBOL polcap 1008 480 R270
WINDOW 0 32 32 VTop 2
WINDOW 3 0 32 VBottom 2
SYMATTR InstName C11
SYMATTR Value 4.7µ
SYMBOL cap 1456 496 R0
SYMATTR InstName C12
SYMATTR Value 3.3n
SYMBOL cap 1616 448 R90
WINDOW 0 0 32 VBottom 2
WINDOW 3 32 32 VTop 2
SYMATTR InstName C13
SYMATTR Value 22n
SYMBOL polcap 1920 512 R270
WINDOW 0 32 32 VTop 2
WINDOW 3 0 32 VBottom 2
SYMATTR InstName C14
SYMATTR Value 1µ
SYMBOL diode 1152 576 R180
WINDOW 0 24 64 Left 2
WINDOW 3 24 0 Left 2
SYMATTR InstName D2
SYMATTR Value 1N4148
SYMBOL diode 1168 512 R0
SYMATTR InstName D3
SYMATTR Value 1N4148
SYMBOL pot 1312 448 R90
WINDOW 0 -33 1 VRight 2
WINDOW 3 46 107 Invisible 2
WINDOW 38 38 -22 Invisible 2
SYMATTR InstName VR2_FILTER
SYMATTR Value Rpot=100K wiper=.5
SYMATTR SpiceModel pot_log
SYMBOL res 1424 448 R90
WINDOW 0 0 56 VBottom 2
WINDOW 3 32 56 VTop 2
SYMATTR InstName R10
SYMATTR Value 1.5k
SYMBOL res 1680 592 R180
WINDOW 0 36 76 Left 2
WINDOW 3 36 40 Left 2
SYMATTR InstName R11
SYMATTR Value 1Meg
SYMBOL res 1904 624 R180
WINDOW 0 36 76 Left 2
WINDOW 3 36 40 Left 2
SYMATTR InstName R12
SYMATTR Value 10k
SYMBOL res 2032 624 R180
WINDOW 0 36 76 Left 2
WINDOW 3 36 40 Left 2
SYMATTR InstName R13
SYMATTR Value 10k
SYMBOL pot 2080 512 R0
WINDOW 0 53 -28 Left 2
WINDOW 3 46 107 Invisible 2
WINDOW 38 38 -22 Invisible 2
SYMATTR InstName VR3_VOLUME
SYMATTR Value Rpot=100K wiper=1
SYMATTR SpiceModel pot_log
SYMBOL njf 1712 400 R0
SYMATTR InstName J1
SYMATTR Value 2N5458
SYMBOL LM308A 480 368 R0
SYMATTR InstName U1
SYMBOL pot_linear 1680 -64 R0
SYMATTR InstName U2
SYMATTR Value Rpot=100K wiper=0.30
SYMBOL res 368 -448 R90
WINDOW 0 0 56 VBottom 2
WINDOW 3 32 56 VTop 2
SYMATTR InstName R14
SYMATTR Value 1k
SYMBOL res 496 -448 R90
WINDOW 0 0 56 VBottom 2
WINDOW 3 32 56 VTop 2
SYMATTR InstName R15
SYMATTR Value 1k
SYMBOL res 720 -272 R90
WINDOW 0 0 56 VBottom 2
WINDOW 3 32 56 VTop 2
SYMATTR InstName R16
SYMATTR Value 15k
SYMBOL res 624 -144 R180
WINDOW 0 36 76 Left 2
WINDOW 3 36 40 Left 2
SYMATTR InstName R17
SYMATTR Value 10k
SYMBOL cap 624 -608 R90
WINDOW 0 0 32 VBottom 2
WINDOW 3 32 32 VTop 2
SYMATTR InstName C8
SYMATTR Value 330n
SYMBOL cap 512 -272 R180
WINDOW 0 24 56 Left 2
WINDOW 3 24 8 Left 2
SYMATTR InstName C15
SYMATTR Value 330n
SYMBOL polcap 1568 -368 R270
WINDOW 0 32 32 VTop 2
WINDOW 3 0 32 VBottom 2
SYMATTR InstName C16
SYMATTR Value 4.7µ
SYMBOL TL071 848 -336 M180
SYMATTR InstName U3
SYMATTR SpiceModel ""
SYMBOL TL071 16 -496 R0
SYMATTR InstName U4
SYMATTR SpiceModel ""
SYMBOL TL071 1200 -448 R0
SYMATTR InstName U5
SYMATTR SpiceModel ""
SYMBOL res 1136 -416 R90
WINDOW 0 0 56 VBottom 2
WINDOW 3 32 56 VTop 2
SYMATTR InstName R18
SYMATTR Value 10k
SYMBOL res 1248 -560 R90
WINDOW 0 0 56 VBottom 2
WINDOW 3 32 56 VTop 2
SYMATTR InstName R19
SYMATTR Value 10k
SYMBOL cap 1120 -352 R90
WINDOW 0 0 32 VBottom 2
WINDOW 3 32 32 VTop 2
SYMATTR InstName C17
SYMATTR Value 47n
SYMBOL res 1120 -336 R0
SYMATTR InstName R20
SYMATTR Value 50k
TEXT -448 1160 Left 2 !;ac oct 5 10 40000
TEXT 704 928 Left 2 !.wave "/Volumes/DATA/Projects/Elec/Eon/Sound/ratout_nobl_dr30_fi50_bl30_vo100.wav" 16 22050 Vout
TEXT 704 880 Left 2 !.tran 2.45; 100m\n;.ac oct 20 20 20k
TEXT 592 1040 Left 2 !* TL071 OPERATIONAL AMPLIFIER "MACROMODEL" SUBCIRCUIT\n* CREATED USING PARTS RELEASE 4.01 ON 06/16/89 AT 13:08\n* (REV N/A)      SUPPLY VOLTAGE: +/-15V\n* CONNECTIONS:   NON-INVERTING INPUT\n*                | INVERTING INPUT\n*                | | POSITIVE POWER SUPPLY\n*                | | | NEGATIVE POWER SUPPLY\n*                | | | | OUTPUT\n*                | | | | |\n.SUBCKT TL071 1 2 3 4 5\n  C1   11 12 3.498E-12\n  C2    6  7 15.00E-12\n  DC    5 53 DX\n  DE   54  5 DX\n  DLP  90 91 DX\n  DLN  92 90 DX\n  DP    4  3 DX\n  EGND 99  0 POLY(2) (3,0) (4,0) 0 .5 .5\n  FB    7 99 POLY(5) VB VC VE VLP VLN 0 4.715E6 -5E6 5E6 5E6 -5E6\n  GA    6  0 11 12 282.8E-6\n  GCM   0  6 10 99 8.942E-9\n  ISS   3 10 DC 195.0E-6\n  HLIM 90  0 VLIM 1K\n  J1   11  2 10 JX\n  J2   12  1 10 JX\n  R2    6  9 100.0E3\n  RD1   4 11 3.536E3\n  RD2   4 12 3.536E3\n  RO1   8  5 150\n  RO2   7 99 150\n  RP    3  4 2.143E3\n  RSS  10 99 1.026E6\n  VB    9  0 DC 0\n  VC    3 53 DC 2.200\n  VE   54  4 DC 2.200\n  VLIM  7  8 DC 0\n  VLP  91  0 DC 25\n  VLN   0 92 DC 25\n.MODEL DX D(IS=800.0E-18)\n.MODEL JX PJF(IS=15.00E-12 BETA=270.1E-6 VTO=-1)\n.ENDS
