Version 4
SHEET 1 2340 1536
WIRE 304 -48 160 -48
WIRE 480 -48 304 -48
WIRE 624 -48 560 -48
WIRE 848 -48 624 -48
WIRE 512 16 512 0
WIRE 624 16 624 -48
WIRE 624 16 512 16
WIRE 160 48 160 -48
WIRE 160 48 96 48
WIRE 208 48 160 48
WIRE 96 80 96 48
WIRE 208 80 208 48
WIRE 304 112 304 -48
WIRE 480 112 304 112
WIRE 848 112 848 -48
WIRE 848 112 544 112
WIRE 96 192 96 160
WIRE 208 192 208 160
WIRE 480 224 368 224
WIRE 656 224 544 224
WIRE 96 304 96 256
WIRE 208 304 208 256
WIRE 784 320 784 272
WIRE 368 336 368 224
WIRE 400 336 368 336
WIRE 656 336 656 224
WIRE 656 336 624 336
WIRE 304 400 304 112
WIRE 400 400 304 400
WIRE 720 400 720 272
WIRE 720 400 624 400
WIRE 784 400 784 384
WIRE 784 400 720 400
WIRE 1760 400 1760 336
WIRE -32 464 -176 464
WIRE 0 464 -32 464
WIRE 96 464 64 464
WIRE 144 464 96 464
WIRE 272 464 224 464
WIRE 400 464 272 464
WIRE 848 464 848 112
WIRE 848 464 624 464
WIRE 880 464 848 464
WIRE 1008 464 960 464
WIRE 1136 464 1072 464
WIRE 1184 464 1136 464
WIRE 1216 464 1184 464
WIRE 1312 464 1296 464
WIRE 1328 464 1312 464
WIRE 1472 464 1408 464
WIRE 1552 464 1472 464
WIRE 1664 464 1616 464
WIRE 1712 464 1664 464
WIRE -176 496 -176 464
WIRE -32 496 -32 464
WIRE 96 496 96 464
WIRE 1472 496 1472 464
WIRE 1664 496 1664 464
WIRE 1888 496 1760 496
WIRE 1920 496 1888 496
WIRE 2016 496 1984 496
WIRE 2096 496 2016 496
WIRE 272 512 272 464
WIRE 1136 512 1136 464
WIRE 1184 512 1184 464
WIRE 400 528 368 528
WIRE 1248 528 1248 512
WIRE 1312 528 1312 464
WIRE 1312 528 1248 528
WIRE 1888 528 1888 496
WIRE 2016 528 2016 496
WIRE 2096 528 2096 496
WIRE 2224 576 2144 576
WIRE 2240 576 2224 576
WIRE 368 592 368 528
WIRE -176 608 -176 576
WIRE -32 608 -32 576
WIRE 96 608 96 576
WIRE 272 608 272 576
WIRE 1136 624 1136 576
WIRE 1152 624 1136 624
WIRE 1184 624 1184 576
WIRE 1184 624 1152 624
WIRE 1152 640 1152 624
WIRE 1472 640 1472 560
WIRE 1664 640 1664 576
WIRE 1888 672 1888 608
WIRE 2016 672 2016 608
WIRE 2096 672 2096 608
WIRE -112 1264 -192 1264
WIRE 16 1264 -32 1264
WIRE 80 1264 16 1264
WIRE 192 1264 80 1264
WIRE 368 1264 192 1264
WIRE 192 1280 192 1264
WIRE -192 1312 -192 1264
WIRE 16 1344 16 1264
WIRE 80 1344 80 1264
WIRE 192 1376 192 1360
WIRE 272 1376 192 1376
WIRE 368 1376 272 1376
WIRE 192 1408 192 1376
WIRE 272 1408 272 1376
WIRE -192 1504 -192 1392
WIRE 16 1504 16 1408
WIRE 16 1504 -192 1504
WIRE 80 1504 80 1408
WIRE 80 1504 16 1504
WIRE 192 1504 192 1488
WIRE 192 1504 80 1504
WIRE 272 1504 272 1472
WIRE 272 1504 192 1504
WIRE -192 1520 -192 1504
FLAG -192 1520 0
FLAG 368 1264 Vcc
FLAG 368 1376 Vcc2
FLAG -176 608 0
FLAG -32 608 0
FLAG 272 608 0
FLAG 96 608 Vcc2
FLAG 368 592 0
FLAG 208 304 0
FLAG 96 304 0
FLAG 784 272 0
FLAG 720 272 Vcc
FLAG 1152 640 0
FLAG 1472 640 0
FLAG 1664 640 0
FLAG 1888 672 0
FLAG 2016 672 0
FLAG 2096 672 0
FLAG 1760 336 Vcc
FLAG 2224 576 Vout
SYMBOL Misc/DIP8 512 432 R0
SYMATTR InstName U1
SYMBOL voltage -192 1296 R0
SYMATTR InstName V1
SYMBOL res -16 1248 R90
WINDOW 0 0 56 VBottom 2
WINDOW 3 32 56 VTop 2
SYMATTR InstName R1
SYMBOL res 208 1376 R180
WINDOW 0 36 76 Left 2
WINDOW 3 36 40 Left 2
SYMATTR InstName R2
SYMBOL res 208 1504 R180
WINDOW 0 36 76 Left 2
WINDOW 3 36 40 Left 2
SYMATTR InstName R3
SYMBOL polcap 64 1344 R0
SYMATTR InstName C1
SYMBOL polcap 256 1408 R0
SYMATTR InstName C2
SYMBOL diode 32 1408 R180
WINDOW 0 24 64 Left 2
WINDOW 3 24 0 Left 2
SYMATTR InstName D1
SYMBOL voltage -176 480 R0
SYMATTR InstName V2
SYMBOL res -48 480 R0
SYMATTR InstName R4
SYMBOL res 80 480 R0
SYMATTR InstName R5
SYMBOL res 240 448 R90
WINDOW 0 0 56 VBottom 2
WINDOW 3 32 56 VTop 2
SYMATTR InstName R6
SYMBOL cap 64 448 R90
WINDOW 0 0 32 VBottom 2
WINDOW 3 32 32 VTop 2
SYMATTR InstName C3
SYMBOL cap 288 576 R180
WINDOW 0 24 56 Left 2
WINDOW 3 24 8 Left 2
SYMATTR InstName C4
SYMBOL cap 544 96 R90
WINDOW 0 0 32 VBottom 2
WINDOW 3 32 32 VTop 2
SYMATTR InstName C5
SYMBOL polcap 80 192 R0
SYMATTR InstName C6
SYMBOL polcap 192 192 R0
SYMATTR InstName C7
SYMBOL res 80 64 R0
SYMATTR InstName R7
SYMBOL res 192 64 R0
SYMATTR InstName R8
SYMBOL res 976 448 R90
WINDOW 0 0 56 VBottom 2
WINDOW 3 32 56 VTop 2
SYMATTR InstName R9
SYMBOL pot 576 -64 R90
WINDOW 0 -25 12 VRight 2
WINDOW 3 46 107 Invisible 2
WINDOW 38 38 -22 Invisible 2
SYMATTR InstName VR1_DRIVE
SYMATTR Value Rpot=100K wiper=.5
SYMBOL cap 800 384 R180
WINDOW 0 24 56 Left 2
WINDOW 3 24 8 Left 2
SYMATTR InstName C9
SYMBOL cap 544 208 R90
WINDOW 0 0 32 VBottom 2
WINDOW 3 32 32 VTop 2
SYMATTR InstName C10
SYMBOL polcap 1008 480 R270
WINDOW 0 32 32 VTop 2
WINDOW 3 0 32 VBottom 2
SYMATTR InstName C11
SYMBOL cap 1456 496 R0
SYMATTR InstName C12
SYMBOL cap 1616 448 R90
WINDOW 0 0 32 VBottom 2
WINDOW 3 32 32 VTop 2
SYMATTR InstName C13
SYMBOL polcap 1984 480 R90
WINDOW 0 0 32 VBottom 2
WINDOW 3 32 32 VTop 2
SYMATTR InstName C14
SYMBOL diode 1152 576 R180
WINDOW 0 24 64 Left 2
WINDOW 3 24 0 Left 2
SYMATTR InstName D2
SYMBOL diode 1168 512 R0
SYMATTR InstName D3
SYMBOL pot 1312 448 R90
WINDOW 0 -33 1 VRight 2
WINDOW 3 46 107 Invisible 2
WINDOW 39 47 133 Invisible 2
WINDOW 38 38 -22 Invisible 2
SYMATTR InstName VR2_FILTER
SYMATTR Value Rpot=100K wiper=.5
SYMBOL res 1424 448 R90
WINDOW 0 0 56 VBottom 2
WINDOW 3 32 56 VTop 2
SYMATTR InstName R10
SYMBOL res 1680 592 R180
WINDOW 0 36 76 Left 2
WINDOW 3 36 40 Left 2
SYMATTR InstName R11
SYMBOL res 1904 624 R180
WINDOW 0 36 76 Left 2
WINDOW 3 36 40 Left 2
SYMATTR InstName R12
SYMBOL res 2032 624 R180
WINDOW 0 36 76 Left 2
WINDOW 3 36 40 Left 2
SYMATTR InstName R13
SYMBOL pot 2080 512 R0
WINDOW 0 53 -28 Left 2
WINDOW 3 46 107 Invisible 2
WINDOW 39 47 133 Invisible 2
WINDOW 38 38 -22 Invisible 2
SYMATTR InstName VR3_VOLUME
SYMATTR Value Rpot=100K wiper=.5
SYMBOL njf 1712 400 R0
SYMATTR InstName J1
